Version 4
SHEET 1 1608 924
WIRE 480 -240 320 -240
WIRE 688 -240 480 -240
WIRE 832 -240 688 -240
WIRE -256 -192 -320 -192
WIRE -208 -192 -256 -192
WIRE 480 -176 480 -240
WIRE -320 -112 -320 -192
WIRE 832 -112 832 -240
WIRE 688 -80 688 -240
WIRE 320 -64 320 -240
WIRE 448 -64 320 -64
WIRE 480 -64 480 -96
WIRE -320 -16 -320 -32
WIRE -112 -16 -320 -16
WIRE -320 16 -320 -16
WIRE 160 32 64 32
WIRE 176 48 176 -48
WIRE 224 48 176 48
WIRE 448 48 448 -64
WIRE 448 48 400 48
WIRE -112 80 -112 -16
WIRE -48 80 -112 80
WIRE 64 80 64 32
WIRE 64 80 32 80
WIRE 160 80 160 32
WIRE 224 80 160 80
WIRE 448 80 448 48
WIRE 448 80 400 80
WIRE 832 80 832 -32
WIRE 64 112 64 80
WIRE 80 112 64 112
WIRE 224 112 160 112
WIRE 512 112 400 112
WIRE 1008 112 992 112
WIRE 1056 112 1008 112
WIRE 1216 112 1120 112
WIRE 1328 112 1216 112
WIRE 1520 112 1328 112
WIRE -320 128 -320 96
WIRE 688 128 688 0
WIRE 1216 128 1216 112
WIRE 1328 128 1328 112
WIRE 1520 128 1520 112
WIRE -208 144 -208 -192
WIRE 224 144 160 144
WIRE 448 144 448 80
WIRE 448 144 400 144
WIRE 160 176 160 144
WIRE 224 176 160 176
WIRE 512 176 512 112
WIRE 512 176 400 176
WIRE 992 176 992 112
WIRE 832 192 832 160
WIRE 80 208 48 208
WIRE 224 208 80 208
WIRE 448 208 400 208
WIRE 512 224 512 176
WIRE 1216 224 1216 192
WIRE -208 240 -208 224
WIRE -128 240 -208 240
WIRE 80 240 80 208
WIRE 224 240 80 240
WIRE 448 240 400 240
WIRE 688 240 688 192
WIRE 832 240 832 192
WIRE 832 240 688 240
WIRE 1328 240 1328 208
WIRE 1520 240 1520 208
WIRE 1520 240 1440 240
WIRE -208 272 -208 240
WIRE 160 272 160 176
WIRE 224 272 160 272
WIRE 432 272 400 272
WIRE 832 272 832 240
WIRE 992 288 992 256
WIRE 1088 288 992 288
WIRE 1440 288 1440 240
WIRE 1520 288 1520 240
WIRE 160 304 160 272
WIRE 1088 320 1088 288
WIRE 432 336 432 272
WIRE 512 352 512 304
WIRE 784 352 512 352
WIRE -208 400 -208 352
WIRE 832 400 832 368
WIRE 928 400 832 400
WIRE 944 400 928 400
WIRE 208 416 160 416
WIRE 352 416 288 416
WIRE 832 416 832 400
WIRE 1440 416 1440 352
WIRE 1520 416 1520 368
WIRE 512 432 512 352
WIRE 160 480 160 416
WIRE 176 480 160 480
WIRE 352 480 240 480
WIRE 160 512 160 480
WIRE 832 544 832 496
WIRE 512 560 512 512
FLAG -208 400 0
FLAG 480 -64 0
FLAG 1088 320 0
FLAG -320 128 0
FLAG 160 512 0
FLAG 832 544 0
FLAG 512 560 0
FLAG 1216 224 0
FLAG 1328 240 0
FLAG 928 400 I_FB
FLAG -256 -192 VREF
FLAG 832 192 VDRAIN
IOPIN 832 192 BiDir
FLAG 1520 416 0
FLAG 1520 112 VOUT
FLAG -112 -16 VO_REF
FLAG 1008 112 VL3
FLAG 1440 416 0
FLAG 432 336 0
FLAG 448 208 CT
FLAG 448 240 RT
FLAG 352 416 RT
FLAG 352 480 CT
FLAG -128 240 I_REF
FLAG 160 304 0
FLAG 176 -48 VFB
FLAG 48 208 VREF
FLAG 1440 240 VFB
IOPIN 1440 240 BiDir
SYMBOL ind2 816 64 R0
SYMATTR InstName L1
SYMATTR Value 1000µ
SYMATTR Type ind
SYMBOL cap 240 464 R90
WINDOW 0 0 32 VBottom 2
WINDOW 3 32 32 VTop 2
SYMATTR InstName C1
SYMATTR Value 10n
SYMBOL res -336 -128 R0
WINDOW 0 36 73 Left 2
WINDOW 3 40 47 Left 2
SYMATTR InstName R1
SYMATTR Value 4K
SYMBOL res -336 0 R0
SYMATTR InstName R2
SYMATTR Value 1K
SYMBOL schottky 1056 128 R270
WINDOW 0 32 32 VTop 2
WINDOW 3 0 32 VBottom 2
SYMATTR InstName D1
SYMATTR Value 1N5818
SYMATTR Description Diode
SYMATTR Type diode
SYMBOL voltage 480 -192 R0
WINDOW 123 0 0 Left 2
WINDOW 39 24 44 Left 2
SYMATTR SpiceLine Rser=0
SYMATTR InstName V1
SYMATTR Value 24
SYMBOL res -64 96 R270
WINDOW 0 32 56 VTop 2
WINDOW 3 0 56 VBottom 2
SYMATTR InstName R3
SYMATTR Value 510
SYMBOL res 64 128 R270
WINDOW 0 32 56 VTop 2
WINDOW 3 -4 48 VBottom 2
SYMATTR InstName R4
SYMATTR Value 10k
SYMBOL res 192 432 R270
WINDOW 0 32 56 VTop 2
WINDOW 3 0 56 VBottom 2
SYMATTR InstName R5
SYMATTR Value 50K
SYMBOL nmos 784 272 R0
WINDOW 3 58 72 Left 2
SYMATTR Value PH2625L
SYMATTR InstName M1
SYMBOL res -224 128 R0
SYMATTR InstName R6
SYMATTR Value 4K
SYMBOL res -224 256 R0
SYMATTR InstName R7
SYMATTR Value 1K
SYMBOL res 816 400 R0
SYMATTR InstName R8
SYMATTR Value 1
SYMBOL res 496 416 R0
SYMATTR InstName R9
SYMATTR Value 100
SYMBOL res 496 208 R0
SYMATTR InstName R10
SYMATTR Value 10
SYMBOL ind2 976 272 M180
WINDOW 0 36 80 Left 2
WINDOW 3 36 40 Left 2
SYMATTR InstName L3
SYMATTR Value 1000µ
SYMATTR Type ind
SYMBOL cap 1200 128 R0
SYMATTR InstName C2
SYMATTR Value 1000µ
SYMBOL res 1312 112 R0
SYMATTR InstName R12
SYMATTR Value 100
SYMBOL res 1504 112 R0
SYMATTR InstName R11
SYMATTR Value 11K
SYMBOL res 1504 272 R0
SYMATTR InstName R13
SYMATTR Value 1K
SYMBOL res 816 -128 R0
SYMATTR InstName R14
SYMATTR Value 1
SYMBOL cap 1424 288 R0
SYMATTR InstName C3
SYMATTR Value 1µ
SYMBOL cap 672 128 R0
SYMATTR InstName C4
SYMATTR Value 1n
SYMBOL res 672 -96 R0
SYMATTR InstName R15
SYMATTR Value 10
SYMBOL SistemaCendit11713\\tl494 320 160 R0
SYMATTR InstName U2
TEXT 864 72 Left 2 !K1 L1 L3 0.9999
TEXT 912 -72 Left 2 !.tran 0 1000m 0
