Version 4
SHEET 1 1128 680
WIRE 640 -336 480 -336
WIRE 848 -336 704 -336
WIRE 960 -336 848 -336
WIRE 992 -336 960 -336
WIRE 480 -288 480 -336
WIRE 848 -272 848 -336
WIRE 992 -272 992 -336
WIRE 848 -208 848 -224
WIRE 480 -176 480 -208
WIRE 560 -176 480 -176
WIRE 848 -160 848 -208
WIRE 992 -160 992 -192
WIRE 992 -160 848 -160
WIRE 560 -144 560 -176
WIRE 992 -112 992 -160
WIRE 176 -64 -112 -64
WIRE 400 -64 176 -64
WIRE 544 -64 464 -64
WIRE 672 -64 544 -64
WIRE 688 -64 672 -64
WIRE 896 -64 736 -64
WIRE 960 -64 896 -64
WIRE 1040 -64 960 -64
WIRE 1072 -64 1040 -64
WIRE 400 -32 400 -64
WIRE 464 -16 464 -64
WIRE 960 -16 960 -64
WIRE 1072 -16 1072 -64
WIRE 176 16 176 -64
WIRE 464 80 464 64
WIRE 608 80 464 80
WIRE -112 96 -112 -64
WIRE 368 96 304 96
WIRE 400 96 400 48
WIRE 400 96 368 96
WIRE 960 96 960 48
WIRE 1072 96 1072 64
WIRE 1072 96 960 96
WIRE 608 112 608 80
WIRE 1072 144 1072 96
WIRE 432 160 304 160
WIRE 640 160 432 160
WIRE 896 160 896 -64
WIRE -112 224 -112 176
WIRE 384 224 304 224
WIRE 384 256 384 224
WIRE 640 272 640 160
WIRE 896 272 896 240
WIRE 896 272 640 272
WIRE 896 304 896 272
WIRE 176 352 176 304
WIRE 384 368 384 336
WIRE 896 448 896 384
WIRE 384 480 384 432
FLAG -112 224 0
FLAG 176 352 0
FLAG 384 480 0
FLAG 1072 144 0
FLAG 896 448 0
FLAG 1040 -64 VOUT
FLAG 432 160 VFEDBACK
FLAG 544 -64 VSEC
FLAG 368 96 VSWITCH
FLAG 608 112 0
FLAG 560 -144 0
FLAG 992 -112 0
FLAG 960 -336 VOUT_NEG
SYMBOL PowerProducts\\LT1070 176 160 R0
SYMATTR InstName U1
SYMBOL voltage -112 80 R0
WINDOW 123 0 0 Left 2
WINDOW 39 24 124 Left 2
SYMATTR InstName V1
SYMATTR Value 24
SYMATTR SpiceLine Rser=1
SYMBOL res 368 240 R0
SYMATTR InstName R1
SYMATTR Value 600
SYMBOL cap 368 368 R0
SYMATTR InstName C1
SYMATTR Value 300n
SYMBOL ind2 384 -48 R0
WINDOW 0 -41 32 Left 2
WINDOW 3 -65 65 Left 2
SYMATTR InstName L1
SYMATTR Value 100µ
SYMBOL ind2 480 80 R180
WINDOW 0 -35 97 Left 2
WINDOW 3 -56 54 Left 2
SYMATTR InstName L2
SYMATTR Value 100µ
SYMBOL cap 944 -16 R0
SYMATTR InstName C2
SYMATTR Value 100µ
SYMBOL res 1056 -32 R0
SYMATTR InstName R2
SYMATTR Value 6
SYMBOL res 880 144 R0
SYMATTR InstName R3
SYMATTR Value 10k
SYMBOL res 880 288 R0
SYMATTR InstName R4
SYMATTR Value 1k
SYMBOL diode 672 -48 R270
WINDOW 0 32 32 VTop 2
WINDOW 3 0 32 VBottom 2
SYMATTR InstName D3
SYMBOL ind2 464 -304 R0
SYMATTR InstName L3
SYMATTR Value 100µ
SYMBOL diode 704 -352 R90
WINDOW 0 0 32 VBottom 2
WINDOW 3 32 32 VTop 2
SYMATTR InstName D1
SYMBOL cap 832 -272 R0
SYMATTR InstName C3
SYMATTR Value 100µ
SYMBOL res 976 -288 R0
SYMATTR InstName R5
SYMATTR Value 6
TEXT 392 -104 Left 2 !K1 L1 L2 1
TEXT -146 504 Left 2 !.tran 10m
TEXT 392 -136 Left 2 !K2 L1 L3 1
TEXT 392 -168 Left 2 !K3 L2 L3 1
